Version 4
SHEET 1 2684 1140
WIRE 1632 -672 1632 -704
WIRE 1488 -560 1424 -560
WIRE 1632 -560 1632 -592
WIRE 1632 -560 1568 -560
WIRE 1632 -528 1632 -560
WIRE 720 -176 720 -240
WIRE 720 -176 224 -176
WIRE 1136 -176 720 -176
WIRE 2096 -176 2096 -192
WIRE 224 -80 224 -176
WIRE 224 -80 208 -80
WIRE 720 -80 720 -176
WIRE 736 -80 720 -80
WIRE 208 -32 208 -80
WIRE 368 -32 288 -32
WIRE 656 -32 368 -32
WIRE 736 -32 736 -80
WIRE 1136 48 1136 -176
WIRE 1152 48 1136 48
WIRE 1136 64 1136 48
WIRE 224 96 224 16
WIRE 368 96 368 -32
WIRE 368 96 224 96
WIRE 720 112 720 16
WIRE 864 112 720 112
WIRE 1072 112 864 112
WIRE 1152 112 1152 48
WIRE 224 176 224 96
WIRE 720 176 720 112
WIRE 864 192 864 112
WIRE 912 192 864 192
WIRE 1008 192 992 192
WIRE 1136 192 1136 160
WIRE 1136 192 1072 192
WIRE 128 224 112 224
WIRE 160 224 128 224
WIRE 464 224 240 224
WIRE 704 224 464 224
WIRE 784 224 768 224
WIRE 800 224 784 224
WIRE 1136 304 1136 272
WIRE 1344 304 1136 304
WIRE 1408 304 1344 304
WIRE 1424 304 1408 304
WIRE 1136 320 1136 304
WIRE 1136 320 1104 320
WIRE 1424 336 1424 304
WIRE 224 352 224 272
WIRE 512 352 224 352
WIRE 720 352 720 272
WIRE 720 352 512 352
WIRE 1136 352 1136 320
WIRE 512 384 512 352
WIRE 128 416 128 224
WIRE 128 416 -160 416
WIRE 800 416 800 224
WIRE 1424 448 1424 400
WIRE 1136 480 1136 432
WIRE 192 528 -64 528
WIRE 288 528 192 528
WIRE 1072 528 384 528
WIRE 1184 528 1152 528
WIRE -64 576 -64 528
WIRE 192 592 192 528
WIRE 512 592 512 464
WIRE 176 640 144 640
WIRE 288 640 288 528
WIRE 288 640 256 640
WIRE 384 640 384 528
WIRE 384 640 288 640
WIRE 448 640 384 640
WIRE 560 640 528 640
WIRE -64 736 -64 656
WIRE 144 736 144 640
WIRE 144 736 -64 736
WIRE 192 736 192 688
WIRE 192 736 144 736
WIRE 512 736 512 688
WIRE 512 736 192 736
WIRE 560 736 560 640
WIRE 560 736 512 736
WIRE 624 736 560 736
WIRE 1136 736 1136 576
WIRE 1136 736 624 736
WIRE 1184 736 1184 528
WIRE 1184 736 1136 736
WIRE 624 784 624 736
WIRE -160 896 -160 416
WIRE 688 896 -160 896
WIRE 752 896 688 896
WIRE 848 896 832 896
WIRE 864 896 848 896
WIRE 1344 896 1344 304
WIRE 1344 896 944 896
WIRE 688 928 688 896
WIRE 688 1040 688 1008
FLAG 1424 448 0
FLAG 1632 -528 0
FLAG 1632 -704 Vdd
FLAG 720 -240 Vdd
FLAG 1408 304 Vo
FLAG 2096 -176 0
FLAG 800 416 0
FLAG 800 224 Vd+
FLAG 112 224 Vd-
FLAG 1424 -560 Vss
FLAG 464 224 Vss
FLAG 624 784 Vss
FLAG 688 1040 0
FLAG 848 896 V2
SYMBOL cap 1408 336 R0
SYMATTR InstName CL
SYMATTR Value 10p
SYMBOL voltage 1632 -688 R0
WINDOW 123 0 0 Left 2
WINDOW 39 0 0 Left 2
SYMATTR InstName V1
SYMATTR Value 1.8
SYMBOL current -64 656 R180
WINDOW 0 24 80 Left 2
WINDOW 3 24 0 Left 2
WINDOW 123 0 0 Left 2
WINDOW 39 0 0 Left 2
SYMATTR InstName Ib
SYMATTR Value 30µ
SYMBOL umc180\\umc180_p 256 -32 M0
SYMATTR InstName U6
SYMATTR SpiceLine W={We} L={Le} M=4
SYMBOL umc180\\umc180_p 688 -32 R0
WINDOW 38 135 -46 Center 2
WINDOW 39 183 -21 Center 2
SYMATTR SpiceLine W={We} L={Le} M=4
SYMATTR InstName U7
SYMBOL umc180\\umc180_p 1104 112 R0
WINDOW 38 118 -41 Center 2
WINDOW 39 180 -12 Center 2
SYMATTR SpiceLine W={Wout} L=Lout M=1
SYMATTR InstName U8
SYMBOL voltage 1136 176 R0
WINDOW 123 0 0 Left 2
WINDOW 39 0 0 Left 2
SYMATTR InstName V6
SYMATTR Value 0
SYMBOL voltage 1136 336 R0
WINDOW 123 0 0 Left 2
WINDOW 39 0 0 Left 2
SYMATTR InstName V7
SYMATTR Value 0
SYMBOL umc180\\umc180_n 1104 528 R0
SYMATTR InstName U9
SYMATTR SpiceLine W=5u L=5u M={N}
SYMBOL umc180\\umc180_n 480 640 R0
SYMATTR InstName U3
SYMATTR SpiceLine W=5u L=5u M=1
SYMBOL umc180\\umc180_n 224 640 M0
SYMATTR InstName U4
SYMATTR SpiceLine W=5u L=5u M=1
SYMBOL umc180\\umc180_n 752 224 M0
SYMATTR InstName U1
SYMATTR SpiceLine W={Wd} L={Ld} M=1
SYMBOL umc180\\umc180_n 192 224 R0
SYMATTR InstName U2
SYMATTR SpiceLine W={Wd} L={Ld} M=1
SYMBOL voltage 512 368 R0
WINDOW 123 0 0 Left 2
WINDOW 39 0 0 Left 2
SYMATTR InstName V9
SYMATTR Value 0
SYMBOL voltage 2096 -288 R0
WINDOW 123 24 124 Left 2
WINDOW 39 0 0 Left 2
SYMATTR Value2 AC 1
SYMATTR InstName V5
SYMATTR Value {Vcm}
SYMBOL res 672 912 R0
SYMATTR InstName R1
SYMATTR Value 1k
SYMBOL res 848 880 R90
WINDOW 0 0 56 VBottom 2
WINDOW 3 32 56 VTop 2
SYMATTR InstName R2
SYMATTR Value 1k
SYMBOL voltage 848 896 R270
WINDOW 0 32 56 VTop 2
WINDOW 3 -32 56 VBottom 2
WINDOW 123 -60 56 VBottom 2
WINDOW 39 0 0 Left 2
SYMATTR InstName V3
SYMATTR Value ""
SYMATTR Value2 AC 1
SYMBOL voltage 1584 -560 R90
WINDOW 123 0 0 Left 2
WINDOW 39 0 0 Left 2
SYMATTR InstName V2
SYMATTR Value 1.8
SYMBOL cap 1072 176 R90
WINDOW 0 0 32 VBottom 2
WINDOW 3 32 32 VTop 2
SYMATTR InstName C1
SYMATTR Value 2p
SYMBOL res 1008 176 R90
WINDOW 0 0 56 VBottom 2
WINDOW 3 32 56 VTop 2
SYMATTR InstName R3
SYMATTR Value 1k
TEXT 1536 -472 Left 2 !.include UMC180.lib
TEXT 1536 -432 Left 2 !.param Vcm=0.9 Vd=0.1 Lout=1u Ld=1u Wd=0.2u Wout=10.5u We=5u Le=5u N=12
TEXT -136 808 Left 2 !.ac dec 100 10 1000meg
TEXT 1544 -384 Left 2 !.four 10meg 10 -1 V(Vo)
